/*--------------------------------*- C++ -*----------------------------------*\
| =========                 |                                                 |
| \\      /  F ield         | OpenFOAM: The Open Source CFD Toolbox           |
|  \\    /   O peration     | Version:  v2006                                 |
|   \\  /    A nd           | Website:  www.openfoam.com                      |
|    \\/     M anipulation  |                                                 |
\*---------------------------------------------------------------------------*/
FoamFile
{
    version     2.0;
    format      ascii;
    class       volScalarField;
    object      alphat;
}
// * * * * * * * * * * * * * * * * * * * * * * * * * * * * * * * * * * * * * //

dimensions      [1 -1 -1 0 0 0 0];

internalField   uniform 0;

boundaryField
{
    outerBoundary
    {
        type            calculated;
        value           uniform 0;
    }

    airfoil
    {
        type            compressible::alphatWallFunction;
        value           uniform 0;
    }

    Front
    {
        type            empty;
    }

    Back
    {
        type            empty;
    }
    
    processor
    {
        type  processor;
        value $internalField;
    }
}

// ************************************************************************* //
